McPAT (version 1.0 of Aug, 2013) is computing the target processor...
 

McPAT (version 1.0 of Aug, 2013) results  (current print level is 5)
*****************************************************************************************
  Technology 45 nm
  Using Long Channel Devices When Appropriate
  Interconnect metal projection= aggressive interconnect technology projection
  Core clock Rate(MHz) 2400

*****************************************************************************************
Processor: 
  Area = 52.5003 mm^2
  Peak Power = 39.0655 W
  Total Leakage = 12.3938 W
  Peak Dynamic = 26.6718 W
  Subthreshold Leakage = 11.7401 W
  Subthreshold Leakage with power gating = 4.95205 W
  Gate Leakage = 0.653628 W
  Runtime Dynamic = 6.81654 W

  Total Cores: 2 cores 
  Device Type= ITRS high performance device type
    Area = 41.783 mm^2
    Peak Dynamic = 26.6483 W
    Subthreshold Leakage = 10.3633 W
    Subthreshold Leakage with power gating = 4.2834 W
    Gate Leakage = 0.630157 W
    Runtime Dynamic = 6.80702 W

  Total L3s: 
  Device Type= ITRS high performance device type
    Area = 10.3506 mm^2
    Peak Dynamic = 0.0234473 W
    Subthreshold Leakage = 1.33591 W
    Subthreshold Leakage with power gating = 0.606264 W
    Gate Leakage = 0.0195471 W
    Runtime Dynamic = 0.00951882 W

  Total NoCs (Network/Bus): 
  Device Type= ITRS high performance device type
    Area = 0.366701 mm^2
    Peak Dynamic = 0 W
    Subthreshold Leakage = 0.0409254 W
    Subthreshold Leakage with power gating = 0.015347 W
    Gate Leakage = 0.00392461 W
    Runtime Dynamic = 0 W

*****************************************************************************************
Core:
      Area = 20.8915 mm^2
      Peak Dynamic = 17.3671 W
      Subthreshold Leakage = 5.18165 W
      Subthreshold Leakage with power gating = 2.1417 W
      Gate Leakage = 0.315078 W
      Runtime Dynamic = 5.40091 W

      Instruction Fetch Unit:
        Area = 3.23334 mm^2
        Peak Dynamic = 5.14951 W
        Subthreshold Leakage = 0.752128 W
        Subthreshold Leakage with power gating = 0.334906 W
        Gate Leakage = 0.0401069 W
        Runtime Dynamic = 0.621887 W

          Instruction Cache:
            Area = 1.48755 mm^2
            Peak Dynamic = 4.07889 W
            Subthreshold Leakage = 0.197302 W
            Subthreshold Leakage with power gating = 0.110843 W
            Gate Leakage = 0.0126594 W
            Runtime Dynamic = 0.0739565 W

          Branch Target Buffer:
            Area = 0.64954 mm^2
            Peak Dynamic = 0.160482 W
            Subthreshold Leakage = 0.0811682 W
            Subthreshold Leakage with power gating = 0.0435357 W
            Gate Leakage = 0.00272758 W
            Runtime Dynamic = 0.0284607 W

          Branch Predictor:
            Area = 0.138516 mm^2
            Peak Dynamic = 0.0539403 W
            Subthreshold Leakage = 0.0199703 W
            Subthreshold Leakage with power gating = 0.0103282 W
            Gate Leakage = 0.000757657 W
            Runtime Dynamic = 0.0103467 W

              Global Predictor:
                Area = 0.0435221 mm^2
                Peak Dynamic = 0.0152328 W
                Subthreshold Leakage = 0.00759719 W
                Subthreshold Leakage with power gating = 0.0039236 W
                Gate Leakage = 0.000278362 W
                Runtime Dynamic = 0.00289981 W

              Local Predictor:
              L1_Local Predictor:
                Area = 0.0257064 mm^2
                Peak Dynamic = 0.0128639 W
                Subthreshold Leakage = 0.00384344 W
                Subthreshold Leakage with power gating = 0.00198631 W
                Gate Leakage = 0.000154548 W
                Runtime Dynamic = 0.00250732 W

              L2_Local Predictor:
                Area = 0.0151917 mm^2
                Peak Dynamic = 0.00475892 W
                Subthreshold Leakage = 0.00181347 W
                Subthreshold Leakage with power gating = 0.000957045 W
                Gate Leakage = 8.00196e-05 W
                Runtime Dynamic = 0.000960559 W

              Chooser:
                Area = 0.0435221 mm^2
                Peak Dynamic = 0.0152328 W
                Subthreshold Leakage = 0.00759719 W
                Subthreshold Leakage with power gating = 0.0039236 W
                Gate Leakage = 0.000278362 W
                Runtime Dynamic = 0.00289981 W

              RAS:
                Area = 0.0105732 mm^2
                Peak Dynamic = 0.0106107 W
                Subthreshold Leakage = 0.000932505 W
                Subthreshold Leakage with power gating = 0.000494733 W
                Gate Leakage = 4.63858e-05 W
                Runtime Dynamic = 0.00203979 W

          Instruction Buffer:
            Area = 0.00587951 mm^2
            Peak Dynamic = 0.0912335 W
            Subthreshold Leakage = 0.000615741 W
            Subthreshold Leakage with power gating = 0.000297034 W
            Gate Leakage = 3.16965e-05 W
            Runtime Dynamic = 0.0454922 W

          Instruction Decoder:
            Area = 0.928993 mm^2
            Peak Dynamic = 0.619867 W
            Subthreshold Leakage = 0.442943 W
            Subthreshold Leakage with power gating = 0.166104 W
            Gate Leakage = 0.0222493 W
            Runtime Dynamic = 0.463631 W

      Renaming Unit:
        Area = 0.245019 mm^2
        Peak Dynamic = 3.17057 W
        Subthreshold Leakage = 0.057718 W
        Subthreshold Leakage with power gating = 0.0309118 W
        Gate Leakage = 0.00683143 W
        Runtime Dynamic = 0.234186 W

          Int Front End RAT:
            Area = 0.0412011 mm^2
            Peak Dynamic = 0.172395 W
            Subthreshold Leakage = 0.00341791 W
            Subthreshold Leakage with power gating = 0.00194821 W
            Gate Leakage = 0.000222957 W
            Runtime Dynamic = 0.118387 W

          FP Front End RAT:
            Area = 0.168486 mm^2
            Peak Dynamic = 2.84071 W
            Subthreshold Leakage = 0.0437281 W
            Subthreshold Leakage with power gating = 0.024925 W
            Gate Leakage = 0.00489731 W
            Runtime Dynamic = 0.0964519 W

          Free List:
            Area = 0.0124751 mm^2
            Peak Dynamic = 0.0123719 W
            Subthreshold Leakage = 0.000443313 W
            Subthreshold Leakage with power gating = 0.000240296 W
            Gate Leakage = 2.99464e-05 W
            Runtime Dynamic = 0.0193474 W

      Load Store Unit:
        Area = 3.3793 mm^2
        Peak Dynamic = 5.08911 W
        Subthreshold Leakage = 0.323071 W
        Subthreshold Leakage with power gating = 0.17759 W
        Gate Leakage = 0.0221062 W
        Runtime Dynamic = 1.55456 W

          Data Cache:
            Area = 2.37577 mm^2
            Peak Dynamic = 4.38348 W
            Subthreshold Leakage = 0.268961 W
            Subthreshold Leakage with power gating = 0.148722 W
            Gate Leakage = 0.0165263 W
            Runtime Dynamic = 0.536914 W

          LoadQ:
            Area = 0.0836782 mm^2
            Peak Dynamic = 0.171562 W
            Subthreshold Leakage = 0.00941961 W
            Subthreshold Leakage with power gating = 0.00536918 W
            Gate Leakage = 0.00059896 W
            Runtime Dynamic = 0.171562 W

          StoreQ:
            Area = 0.322079 mm^2
            Peak Dynamic = 0.423042 W
            Subthreshold Leakage = 0.0345621 W
            Subthreshold Leakage with power gating = 0.0197004 W
            Gate Leakage = 0.00329971 W
            Runtime Dynamic = 0.846085 W

      Memory Management Unit:
        Area = 0.412381 mm^2
        Peak Dynamic = 0.639096 W
        Subthreshold Leakage = 0.0670745 W
        Subthreshold Leakage with power gating = 0.0362573 W
        Gate Leakage = 0.00650314 W
        Runtime Dynamic = 0.20741 W

          Itlb:
            Area = 0.301552 mm^2
            Peak Dynamic = 0.360897 W
            Subthreshold Leakage = 0.0413758 W
            Subthreshold Leakage with power gating = 0.0235842 W
            Gate Leakage = 0.00393464 W
            Runtime Dynamic = 0.0564581 W

          Dtlb:
            Area = 0.0879726 mm^2
            Peak Dynamic = 0.150139 W
            Subthreshold Leakage = 0.0155699 W
            Subthreshold Leakage with power gating = 0.00887485 W
            Gate Leakage = 0.00088729 W
            Runtime Dynamic = 0.150952 W

      Execution Unit:
        Area = 6.20199 mm^2
        Peak Dynamic = 3.25937 W
        Subthreshold Leakage = 1.52672 W
        Subthreshold Leakage with power gating = 0.58156 W
        Gate Leakage = 0.101521 W
        Runtime Dynamic = 2.76657 W

          Register Files:
            Area = 0.179415 mm^2
            Peak Dynamic = 0.0919915 W
            Subthreshold Leakage = 0.00402938 W
            Subthreshold Leakage with power gating = 0.00176865 W
            Gate Leakage = 0.000236197 W
            Runtime Dynamic = 0.0949805 W

              Integer RF:
                Area = 0.110184 mm^2
                Peak Dynamic = 0.0826671 W
                Subthreshold Leakage = 0.00221167 W
                Subthreshold Leakage with power gating = 0.000924015 W
                Gate Leakage = 0.000136256 W
                Runtime Dynamic = 0.0827541 W

              Floating Point RF:
                Area = 0.0692314 mm^2
                Peak Dynamic = 0.00932433 W
                Subthreshold Leakage = 0.0018177 W
                Subthreshold Leakage with power gating = 0.000844636 W
                Gate Leakage = 9.99403e-05 W
                Runtime Dynamic = 0.0122264 W

          Instruction Scheduler:
            Area = 0.838953 mm^2
            Peak Dynamic = 1.97088 W
            Subthreshold Leakage = 0.047772 W
            Subthreshold Leakage with power gating = 0.0266975 W
            Gate Leakage = 0.00299083 W
            Runtime Dynamic = 1.31866 W

              Instruction Window:
                Area = 0.270024 mm^2
                Peak Dynamic = 0.503593 W
                Subthreshold Leakage = 0.0220651 W
                Subthreshold Leakage with power gating = 0.0125413 W
                Gate Leakage = 0.00146573 W
                Runtime Dynamic = 0.495593 W

              FP Instruction Window:
                Area = 0.328073 mm^2
                Peak Dynamic = 1.05845 W
                Subthreshold Leakage = 0.0168204 W
                Subthreshold Leakage with power gating = 0.0095518 W
                Gate Leakage = 0.00113143 W
                Runtime Dynamic = 0.517275 W

              ROB:
                Area = 0.240856 mm^2
                Peak Dynamic = 0.408835 W
                Subthreshold Leakage = 0.00888654 W
                Subthreshold Leakage with power gating = 0.00460438 W
                Gate Leakage = 0.000393663 W
                Runtime Dynamic = 0.30579 W

          Integer ALUs (Count: 3 ):
            Area = 0.235435 mm^2
            Peak Dynamic = 0.526245 W
            Subthreshold Leakage = 0.20111 W
            Subthreshold Leakage with power gating = 0.0754163 W
            Gate Leakage = 0.0132646 W
            Runtime Dynamic = 0.101344 W

          Floating Point Units (FPUs) (Count: 2 ):
            Area = 4.6585 mm^2
            Peak Dynamic = 0.157032 W
            Subthreshold Leakage = 0.994829 W
            Subthreshold Leakage with power gating = 0.373061 W
            Gate Leakage = 0.0656156 W
            Runtime Dynamic = 0.304033 W

          Complex ALUs (Mul/Div) (Count: 1 ):
            Area = 0.235435 mm^2
            Peak Dynamic = 0.0320738 W
            Subthreshold Leakage = 0.20111 W
            Subthreshold Leakage with power gating = 0.0754163 W
            Gate Leakage = 0.0132646 W
            Runtime Dynamic = 0.227309 W

          Results Broadcast Bus:
            Area Overhead = 0.0313916 mm^2
            Peak Dynamic = 0.412086 W
            Subthreshold Leakage = 0.0677372 W
            Subthreshold Leakage with power gating = 0.0254014 W
            Gate Leakage = 0.00446772 W
            Runtime Dynamic = 0.720249 W

    L2
    Area = 3.02276 mm^2
    Peak Dynamic = 0.0594584 W
    Subthreshold Leakage = 0.577095 W
    Subthreshold Leakage with power gating = 0.276286 W
    Gate Leakage = 0.0141538 W
    Runtime Dynamic = 0.0162861 W

*****************************************************************************************
Core:
      Area = 20.8915 mm^2
      Peak Dynamic = 9.28122 W
      Subthreshold Leakage = 5.18165 W
      Subthreshold Leakage with power gating = 2.1417 W
      Gate Leakage = 0.315078 W
      Runtime Dynamic = 1.40611 W

      Instruction Fetch Unit:
        Area = 3.23334 mm^2
        Peak Dynamic = 1.87504 W
        Subthreshold Leakage = 0.752128 W
        Subthreshold Leakage with power gating = 0.334906 W
        Gate Leakage = 0.0401069 W
        Runtime Dynamic = 0.0900398 W

          Instruction Cache:
            Area = 1.48755 mm^2
            Peak Dynamic = 0.916906 W
            Subthreshold Leakage = 0.197302 W
            Subthreshold Leakage with power gating = 0.110843 W
            Gate Leakage = 0.0126594 W
            Runtime Dynamic = 0.00919973 W

          Branch Target Buffer:
            Area = 0.64954 mm^2
            Peak Dynamic = 0.160482 W
            Subthreshold Leakage = 0.0811682 W
            Subthreshold Leakage with power gating = 0.0435357 W
            Gate Leakage = 0.00272758 W
            Runtime Dynamic = 0.00311529 W

          Branch Predictor:
            Area = 0.138516 mm^2
            Peak Dynamic = 0.0539403 W
            Subthreshold Leakage = 0.0199703 W
            Subthreshold Leakage with power gating = 0.0103282 W
            Gate Leakage = 0.000757657 W
            Runtime Dynamic = 0.00121767 W

              Global Predictor:
                Area = 0.0435221 mm^2
                Peak Dynamic = 0.0152328 W
                Subthreshold Leakage = 0.00759719 W
                Subthreshold Leakage with power gating = 0.0039236 W
                Gate Leakage = 0.000278362 W
                Runtime Dynamic = 0.000318007 W

              Local Predictor:
              L1_Local Predictor:
                Area = 0.0257064 mm^2
                Peak Dynamic = 0.0128639 W
                Subthreshold Leakage = 0.00384344 W
                Subthreshold Leakage with power gating = 0.00198631 W
                Gate Leakage = 0.000154548 W
                Runtime Dynamic = 0.000275129 W

              L2_Local Predictor:
                Area = 0.0151917 mm^2
                Peak Dynamic = 0.00475892 W
                Subthreshold Leakage = 0.00181347 W
                Subthreshold Leakage with power gating = 0.000957045 W
                Gate Leakage = 8.00196e-05 W
                Runtime Dynamic = 0.000105493 W

              Chooser:
                Area = 0.0435221 mm^2
                Peak Dynamic = 0.0152328 W
                Subthreshold Leakage = 0.00759719 W
                Subthreshold Leakage with power gating = 0.0039236 W
                Gate Leakage = 0.000278362 W
                Runtime Dynamic = 0.000318007 W

              RAS:
                Area = 0.0105732 mm^2
                Peak Dynamic = 0.0106107 W
                Subthreshold Leakage = 0.000932505 W
                Subthreshold Leakage with power gating = 0.000494733 W
                Gate Leakage = 4.63858e-05 W
                Runtime Dynamic = 0.000306523 W

          Instruction Buffer:
            Area = 0.00587951 mm^2
            Peak Dynamic = 0.0912335 W
            Subthreshold Leakage = 0.000615741 W
            Subthreshold Leakage with power gating = 0.000297034 W
            Gate Leakage = 3.16965e-05 W
            Runtime Dynamic = 0.00683622 W

          Instruction Decoder:
            Area = 0.928993 mm^2
            Peak Dynamic = 0.619867 W
            Subthreshold Leakage = 0.442943 W
            Subthreshold Leakage with power gating = 0.166104 W
            Gate Leakage = 0.0222493 W
            Runtime Dynamic = 0.0696708 W

      Renaming Unit:
        Area = 0.245019 mm^2
        Peak Dynamic = 3.17057 W
        Subthreshold Leakage = 0.057718 W
        Subthreshold Leakage with power gating = 0.0309118 W
        Gate Leakage = 0.00683143 W
        Runtime Dynamic = 0.039632 W

          Int Front End RAT:
            Area = 0.0412011 mm^2
            Peak Dynamic = 0.172395 W
            Subthreshold Leakage = 0.00341791 W
            Subthreshold Leakage with power gating = 0.00194821 W
            Gate Leakage = 0.000222957 W
            Runtime Dynamic = 0.017974 W

          FP Front End RAT:
            Area = 0.168486 mm^2
            Peak Dynamic = 2.84071 W
            Subthreshold Leakage = 0.0437281 W
            Subthreshold Leakage with power gating = 0.024925 W
            Gate Leakage = 0.00489731 W
            Runtime Dynamic = 0.018714 W

          Free List:
            Area = 0.0124751 mm^2
            Peak Dynamic = 0.0123719 W
            Subthreshold Leakage = 0.000443313 W
            Subthreshold Leakage with power gating = 0.000240296 W
            Gate Leakage = 2.99464e-05 W
            Runtime Dynamic = 0.00294413 W

      Load Store Unit:
        Area = 3.3793 mm^2
        Peak Dynamic = 1.85792 W
        Subthreshold Leakage = 0.323071 W
        Subthreshold Leakage with power gating = 0.17759 W
        Gate Leakage = 0.0221062 W
        Runtime Dynamic = 0.294999 W

          Data Cache:
            Area = 2.37577 mm^2
            Peak Dynamic = 1.72618 W
            Subthreshold Leakage = 0.268961 W
            Subthreshold Leakage with power gating = 0.148722 W
            Gate Leakage = 0.0165263 W
            Runtime Dynamic = 0.10501 W

          LoadQ:
            Area = 0.0836782 mm^2
            Peak Dynamic = 0.0320296 W
            Subthreshold Leakage = 0.00941961 W
            Subthreshold Leakage with power gating = 0.00536918 W
            Gate Leakage = 0.00059896 W
            Runtime Dynamic = 0.0320296 W

          StoreQ:
            Area = 0.322079 mm^2
            Peak Dynamic = 0.0789795 W
            Subthreshold Leakage = 0.0345621 W
            Subthreshold Leakage with power gating = 0.0197004 W
            Gate Leakage = 0.00329971 W
            Runtime Dynamic = 0.157959 W

      Memory Management Unit:
        Area = 0.412381 mm^2
        Peak Dynamic = 0.192069 W
        Subthreshold Leakage = 0.0670745 W
        Subthreshold Leakage with power gating = 0.0362573 W
        Gate Leakage = 0.00650314 W
        Runtime Dynamic = 0.0353566 W

          Itlb:
            Area = 0.301552 mm^2
            Peak Dynamic = 0.0811272 W
            Subthreshold Leakage = 0.0413758 W
            Subthreshold Leakage with power gating = 0.0235842 W
            Gate Leakage = 0.00393464 W
            Runtime Dynamic = 0.00711026 W

          Dtlb:
            Area = 0.0879726 mm^2
            Peak Dynamic = 0.0280301 W
            Subthreshold Leakage = 0.0155699 W
            Subthreshold Leakage with power gating = 0.00887485 W
            Gate Leakage = 0.00088729 W
            Runtime Dynamic = 0.0282464 W

      Execution Unit:
        Area = 6.20199 mm^2
        Peak Dynamic = 2.16909 W
        Subthreshold Leakage = 1.52672 W
        Subthreshold Leakage with power gating = 0.58156 W
        Gate Leakage = 0.101521 W
        Runtime Dynamic = 0.93906 W

          Register Files:
            Area = 0.179415 mm^2
            Peak Dynamic = 0.014032 W
            Subthreshold Leakage = 0.00402938 W
            Subthreshold Leakage with power gating = 0.00176865 W
            Gate Leakage = 0.000236197 W
            Runtime Dynamic = 0.0142729 W

              Integer RF:
                Area = 0.110184 mm^2
                Peak Dynamic = 0.0122228 W
                Subthreshold Leakage = 0.00221167 W
                Subthreshold Leakage with power gating = 0.000924015 W
                Gate Leakage = 0.000136256 W
                Runtime Dynamic = 0.0124356 W

              Floating Point RF:
                Area = 0.0692314 mm^2
                Peak Dynamic = 0.0018092 W
                Subthreshold Leakage = 0.0018177 W
                Subthreshold Leakage with power gating = 0.000844636 W
                Gate Leakage = 9.99403e-05 W
                Runtime Dynamic = 0.00183729 W

          Instruction Scheduler:
            Area = 0.838953 mm^2
            Peak Dynamic = 1.97088 W
            Subthreshold Leakage = 0.047772 W
            Subthreshold Leakage with power gating = 0.0266975 W
            Gate Leakage = 0.00299083 W
            Runtime Dynamic = 0.198158 W

              Instruction Window:
                Area = 0.270024 mm^2
                Peak Dynamic = 0.503593 W
                Subthreshold Leakage = 0.0220651 W
                Subthreshold Leakage with power gating = 0.0125413 W
                Gate Leakage = 0.00146573 W
                Runtime Dynamic = 0.0744738 W

              FP Instruction Window:
                Area = 0.328073 mm^2
                Peak Dynamic = 1.05845 W
                Subthreshold Leakage = 0.0168204 W
                Subthreshold Leakage with power gating = 0.0095518 W
                Gate Leakage = 0.00113143 W
                Runtime Dynamic = 0.0777321 W

              ROB:
                Area = 0.240856 mm^2
                Peak Dynamic = 0.408835 W
                Subthreshold Leakage = 0.00888654 W
                Subthreshold Leakage with power gating = 0.00460438 W
                Gate Leakage = 0.000393663 W
                Runtime Dynamic = 0.0459516 W

          Integer ALUs (Count: 3 ):
            Area = 0.235435 mm^2
            Peak Dynamic = 0.0779848 W
            Subthreshold Leakage = 0.20111 W
            Subthreshold Leakage with power gating = 0.0754163 W
            Gate Leakage = 0.0132646 W
            Runtime Dynamic = 0.101344 W

          Floating Point Units (FPUs) (Count: 2 ):
            Area = 4.6585 mm^2
            Peak Dynamic = 0.0304689 W
            Subthreshold Leakage = 0.994829 W
            Subthreshold Leakage with power gating = 0.373061 W
            Gate Leakage = 0.0656156 W
            Runtime Dynamic = 0.304033 W

          Complex ALUs (Mul/Div) (Count: 1 ):
            Area = 0.235435 mm^2
            Peak Dynamic = 0.00458932 W
            Subthreshold Leakage = 0.20111 W
            Subthreshold Leakage with power gating = 0.0754163 W
            Gate Leakage = 0.0132646 W
            Runtime Dynamic = 0.206211 W

          Results Broadcast Bus:
            Area Overhead = 0.0313916 mm^2
            Peak Dynamic = 0.0608973 W
            Subthreshold Leakage = 0.0677372 W
            Subthreshold Leakage with power gating = 0.0254014 W
            Gate Leakage = 0.00446772 W
            Runtime Dynamic = 0.115041 W

    L2
    Area = 3.02276 mm^2
    Peak Dynamic = 0.0165276 W
    Subthreshold Leakage = 0.577095 W
    Subthreshold Leakage with power gating = 0.276286 W
    Gate Leakage = 0.0141538 W
    Runtime Dynamic = 0.00702561 W

*****************************************************************************************
      L3
      Area = 10.3506 mm^2
      Peak Dynamic = 0.0234473 W
      Subthreshold Leakage = 1.33591 W
      Subthreshold Leakage with power gating = 0.606264 W
      Gate Leakage = 0.0195471 W
      Runtime Dynamic = 0.00951882 W

*****************************************************************************************
BUSES
      Area = 0.366701 mm^2
      Peak Dynamic = 0 W
      Subthreshold Leakage = 0.0409254 W
      Subthreshold Leakage with power gating = 0.015347 W
      Gate Leakage = 0.00392461 W
      Runtime Dynamic = 0 W

      Bus: 
        Area = 0.366701 mm^2
        Peak Dynamic = 0 W
        Subthreshold Leakage = 0.0409254 W
        Subthreshold Leakage with power gating = 0.015347 W
        Gate Leakage = 0.00392461 W
        Runtime Dynamic = 0 W

*****************************************************************************************
